Version 4
SHEET 1 880 680
WIRE -720 -64 -720 -96
WIRE -576 -64 -576 -96
WIRE -432 -64 -432 -96
WIRE -288 -64 -288 -96
WIRE -144 -64 -144 -96
WIRE 0 -64 0 -96
WIRE -720 48 -720 16
WIRE -576 48 -576 16
WIRE -432 48 -432 16
WIRE -288 48 -288 16
WIRE -144 48 -144 16
WIRE 0 48 0 16
WIRE 272 176 272 112
WIRE 304 176 304 112
WIRE 336 176 336 112
WIRE 368 176 368 112
WIRE 400 176 400 112
WIRE 432 176 432 112
WIRE 256 240 224 240
WIRE 528 240 448 240
WIRE -112 256 -112 240
WIRE 528 272 448 272
WIRE 528 304 448 304
WIRE -112 384 -112 336
FLAG -112 384 0
FLAG -720 48 0
FLAG 528 272 node3_out
IOPIN 528 272 Out
FLAG 528 240 node2_out
IOPIN 528 240 Out
FLAG 528 304 node4_out
IOPIN 528 304 Out
FLAG 272 112 S1
IOPIN 272 112 In
FLAG 304 112 S2
IOPIN 304 112 In
FLAG 336 112 S3
IOPIN 336 112 In
FLAG 368 112 S4
IOPIN 368 112 In
FLAG 400 112 S5
IOPIN 400 112 In
FLAG 432 112 S6
IOPIN 432 112 In
FLAG -576 48 0
FLAG -432 48 0
FLAG -288 48 0
FLAG -144 48 0
FLAG 0 48 0
FLAG -720 -96 S1
IOPIN -720 -96 Out
FLAG -576 -96 S2
IOPIN -576 -96 Out
FLAG -432 -96 S3
IOPIN -432 -96 Out
FLAG -288 -96 S4
IOPIN -288 -96 Out
FLAG -144 -96 S5
IOPIN -144 -96 Out
FLAG 0 -96 S6
IOPIN 0 -96 Out
FLAG -112 240 Input
IOPIN -112 240 Out
FLAG 224 240 Input
IOPIN 224 240 In
SYMBOL voltage -112 240 R0
WINDOW 123 0 0 Left 0
WINDOW 39 0 0 Left 0
SYMATTR InstName V1
SYMATTR Value 5
SYMBOL voltage -720 -80 R0
WINDOW 123 0 0 Left 0
WINDOW 39 0 0 Left 0
WINDOW 3 -151 167 Left 2
SYMATTR Value PULSE(0 5 0 1n 1n 20u 60u)
SYMATTR InstName V2
SYMBOL Switch_matrix 432 336 R0
WINDOW 0 -78 40 Top 2
SYMATTR InstName Single_switch_matrix
SYMBOL voltage -576 -80 R0
WINDOW 123 0 0 Left 0
WINDOW 39 0 0 Left 0
SYMATTR InstName V3
SYMATTR Value 0
SYMBOL voltage -432 -80 R0
WINDOW 123 0 0 Left 0
WINDOW 39 0 0 Left 0
WINDOW 3 51 93 Left 2
SYMATTR Value 0
SYMATTR InstName V4
SYMBOL voltage -288 -80 R0
WINDOW 123 0 0 Left 0
WINDOW 39 0 0 Left 0
WINDOW 3 -24 202 Left 2
SYMATTR Value PULSE(0 5 40u 1n 1n 20u 60u)
SYMATTR InstName V5
SYMBOL voltage -144 -80 R0
WINDOW 123 0 0 Left 0
WINDOW 39 0 0 Left 0
WINDOW 3 -246 168 Left 2
SYMATTR Value PULSE(0 5 20u 1n 1n 20u 60u)
SYMATTR InstName V6
SYMBOL voltage 0 -80 R0
WINDOW 123 0 0 Left 0
WINDOW 39 0 0 Left 0
SYMATTR InstName V7
SYMATTR Value 0
TEXT -344 352 Left 2 !.tran 60u
