Version 4
SHEET 1 1700 680
WIRE -864 -384 -864 -480
WIRE -752 -384 -752 -480
WIRE -640 -384 -640 -480
WIRE -304 -272 -336 -272
WIRE 384 -256 352 -256
WIRE -304 -240 -336 -240
WIRE -16 -240 -96 -240
WIRE -864 -224 -864 -304
WIRE -752 -224 -752 -304
WIRE -640 -224 -640 -304
WIRE -16 -224 -16 -240
WIRE 224 -224 -16 -224
WIRE 384 -224 224 -224
WIRE -304 -208 -336 -208
WIRE 688 -208 560 -208
WIRE 192 -192 -16 -192
WIRE 384 -192 192 -192
WIRE -336 -176 -336 -208
WIRE 384 -160 352 -160
WIRE 352 -112 352 -160
WIRE -304 -64 -336 -64
WIRE -864 -48 -864 -112
WIRE 880 -48 848 -48
WIRE -304 -32 -336 -32
WIRE -16 -32 -16 -192
WIRE -16 -32 -96 -32
WIRE 384 -16 352 -16
WIRE 688 -16 688 -208
WIRE 880 -16 688 -16
WIRE -304 0 -336 0
WIRE 224 16 224 -224
WIRE 384 16 224 16
WIRE 880 16 688 16
WIRE 1152 16 1056 16
WIRE -336 32 -336 0
WIRE 688 32 688 16
WIRE 688 32 560 32
WIRE 384 48 160 48
WIRE 880 48 688 48
WIRE 384 80 352 80
WIRE 880 80 848 80
WIRE -864 112 -864 32
WIRE 848 112 848 80
WIRE 352 128 352 80
WIRE 384 224 352 224
WIRE 192 256 192 -192
WIRE 384 256 192 256
WIRE 688 272 688 48
WIRE 688 272 560 272
WIRE 160 288 160 48
WIRE 160 288 -368 288
WIRE 384 288 160 288
WIRE 384 320 352 320
WIRE 352 368 352 320
FLAG -864 -224 0
FLAG -752 -224 0
FLAG -640 -224 0
FLAG -864 -480 A
IOPIN -864 -480 Out
FLAG -752 -480 B
IOPIN -752 -480 Out
FLAG -640 -480 S
IOPIN -640 -480 Out
FLAG 1152 16 Output
IOPIN 1152 16 Out
FLAG -864 112 0
FLAG -864 -112 Vdd
IOPIN -864 -112 Out
FLAG -336 -272 Vdd
IOPIN -336 -272 In
FLAG -336 -64 Vdd
IOPIN -336 -64 In
FLAG 352 -256 Vdd
IOPIN 352 -256 In
FLAG 352 -16 Vdd
IOPIN 352 -16 In
FLAG 352 224 Vdd
IOPIN 352 224 In
FLAG 848 -48 Vdd
IOPIN 848 -48 In
FLAG -336 -240 A
IOPIN -336 -240 In
FLAG -336 -32 B
IOPIN -336 -32 In
FLAG 352 -112 0
FLAG 352 128 0
FLAG 352 368 0
FLAG 848 112 0
FLAG -336 32 0
FLAG -336 -176 0
FLAG -368 288 S
IOPIN -368 288 In
SYMBOL voltage -864 -400 R0
WINDOW 3 -455 96 Left 2
WINDOW 123 0 0 Left 0
WINDOW 39 0 0 Left 0
SYMATTR Value PULSE(0 5 20u 1n 1n 20u 40u)
SYMATTR InstName V2
SYMBOL voltage -752 -400 R0
WINDOW 3 -565 132 Left 2
WINDOW 123 0 0 Left 0
WINDOW 39 0 0 Left 0
SYMATTR Value PULSE(0 5 10u 1n 1n 10u 20u)
SYMATTR InstName V3
SYMBOL voltage -640 -400 R0
WINDOW 3 -676 169 Left 2
WINDOW 123 0 0 Left 0
WINDOW 39 0 0 Left 0
SYMATTR Value PULSE(0 5 40u 1n 1n 40u 80u)
SYMATTR InstName V4
SYMBOL Nand3 960 16 R0
SYMATTR InstName NAND_4
SYMBOL Nand2 464 -208 R0
SYMATTR InstName NAND_1
SYMBOL Nand2 464 32 R0
SYMATTR InstName NAND_2
SYMBOL Nand2 464 272 R0
SYMATTR InstName NAND_3
SYMBOL Not2 -208 -240 R0
SYMATTR InstName NOT_1
SYMBOL Not2 -208 -32 R0
SYMATTR InstName NOT_2
SYMBOL voltage -864 -64 R0
WINDOW 123 0 0 Left 0
WINDOW 39 0 0 Left 0
SYMATTR InstName V1
SYMATTR Value 5
TEXT -1176 -120 Left 2 !.tran 80u
